#======================================================================
# CRYSTAL DATA
#----------------------------------------------------------------------
data_VESTA_phase_1

_chemical_name_common                  'H40 C24 O20                           '
_cell_length_a                         7.469289
_cell_length_b                         8.158385
_cell_length_c                         10.416554
_cell_angle_alpha                      90.022156
_cell_angle_beta                       89.937271
_cell_angle_gamma                      96.559265
_cell_volume                           630.601745
_space_group_name_H-M_alt              'P 1'
_space_group_IT_number                 1

loop_
_space_group_symop_operation_xyz
   'x, y, z'

loop_
   _atom_site_label
   _atom_site_occupancy
   _atom_site_fract_x
   _atom_site_fract_y
   _atom_site_fract_z
   _atom_site_adp_type
   _atom_site_U_iso_or_equiv
   _atom_site_type_symbol
   C1         1.0     0.023930     0.962444     0.037617    Uiso  ? C
   C2         1.0     0.977295     0.039768     0.537680    Uiso  ? C
   C3         1.0     0.986161     0.818242     0.943735    Uiso  ? C
   C4         1.0     0.015210     0.183953     0.443808    Uiso  ? C
   C5         1.0     0.059781     0.870501     0.812384    Uiso  ? C
   C6         1.0     0.941432     0.131680     0.312576    Uiso  ? C
   C7         1.0     0.982017     0.027772     0.770761    Uiso  ? C
   C8         1.0     0.019095     0.974341     0.270722    Uiso  ? C
   C9         1.0     0.024199     0.166047     0.869908    Uiso  ? C
   C10        1.0     0.976620     0.836142     0.369870    Uiso  ? C
   C11        1.0     0.937443     0.322726     0.841299    Uiso  ? C
   C12        1.0     0.062850     0.679157     0.341192    Uiso  ? C
   C13        1.0     0.522318     0.453402     0.305741    Uiso  ? C
   C14        1.0     0.478378     0.548210     0.805804    Uiso  ? C
   C15        1.0     0.452691     0.319088     0.210647    Uiso  ? C
   C16        1.0     0.547960     0.682569     0.710698    Uiso  ? C
   C17        1.0     0.535591     0.359044     0.079557    Uiso  ? C
   C18        1.0     0.464996     0.642648     0.579720    Uiso  ? C
   C19        1.0     0.487919     0.528645     0.037709    Uiso  ? C
   C20        1.0     0.512747     0.473096     0.537665    Uiso  ? C
   C21        1.0     0.555835     0.661602     0.135610    Uiso  ? C
   C22        1.0     0.445007     0.340043     0.635567    Uiso  ? C
   C23        1.0     0.484811     0.827527     0.115580    Uiso  ? C
   C24        1.0     0.516444     0.174328     0.615127    Uiso  ? C
   H1         1.0     0.171107     0.995492     0.051933    Uiso  ? H
   H2         1.0     0.830111     0.006826     0.552212    Uiso  ? H
   H3         1.0     0.838273     0.787046     0.937871    Uiso  ? H
   H4         1.0     0.163102     0.215050     0.437692    Uiso  ? H
   H5         1.0     0.208878     0.895001     0.815925    Uiso  ? H
   H6         1.0     0.792337     0.107217     0.316478    Uiso  ? H
   H7         1.0     0.833836     0.001943     0.758594    Uiso  ? H
   H8         1.0     0.167293     0.000061     0.258392    Uiso  ? H
   H9         1.0     0.172270     0.196143     0.879141    Uiso  ? H
   H10        1.0     0.828504     0.806410     0.379347    Uiso  ? H
   H11        1.0     0.793203     0.290384     0.818873    Uiso  ? H
   H12        1.0     0.207272     0.711030     0.318924    Uiso  ? H
   H13        1.0     0.947851     0.401138     0.928060    Uiso  ? H
   H14        1.0     0.051672     0.600712     0.427894    Uiso  ? H
   H15        1.0     0.028510     0.653224     0.077215    Uiso  ? H
   H16        1.0     0.972862     0.349001     0.577488    Uiso  ? H
   H17        1.0     0.040841     0.779164     0.634672    Uiso  ? H
   H18        1.0     0.960210     0.222820     0.134849    Uiso  ? H
   H19        1.0     0.017432     0.532418     0.747219    Uiso  ? H
   H20        1.0     0.983010     0.469712     0.246911    Uiso  ? H
   H21        1.0     0.669225     0.454653     0.322438    Uiso  ? H
   H22        1.0     0.331472     0.546895     0.822736    Uiso  ? H
   H23        1.0     0.304177     0.318244     0.203884    Uiso  ? H
   H24        1.0     0.696479     0.683420     0.703692    Uiso  ? H
   H25        1.0     0.684531     0.363184     0.085838    Uiso  ? H
   H26        1.0     0.316060     0.638483     0.586264    Uiso  ? H
   H27        1.0     0.340062     0.525232     0.025748    Uiso  ? H
   H28        1.0     0.660616     0.476679     0.525437    Uiso  ? H
   H29        1.0     0.704629     0.675650     0.138150    Uiso  ? H
   H30        1.0     0.296213     0.325809     0.638333    Uiso  ? H
   H31        1.0     0.336051     0.805139     0.110050    Uiso  ? H
   H32        1.0     0.665141     0.197207     0.608957    Uiso  ? H
   H33        1.0     0.522651     0.904542     0.200264    Uiso  ? H
   H34        1.0     0.479334     0.097183     0.699879    Uiso  ? H
   H35        1.0     0.474033     0.151586     0.347449    Uiso  ? H
   H36        1.0     0.526580     0.849958     0.847701    Uiso  ? H
   H37        1.0     0.492902     0.271324     0.902700    Uiso  ? H
   H38        1.0     0.507754     0.730278     0.402838    Uiso  ? H
   H39        1.0     0.537938     0.029444     0.010650    Uiso  ? H
   H40        1.0     0.462732     0.972194     0.510469    Uiso  ? H
   O1         1.0     0.071758     0.681012     0.988058    Uiso  ? O
   O2         1.0     0.929760     0.321269     0.488332    Uiso  ? O
   O3         1.0     0.009813     0.738593     0.723029    Uiso  ? O
   O4         1.0     0.991269     0.263524     0.223148    Uiso  ? O
   O5         1.0     0.064168     0.087751     0.652254    Uiso  ? O
   O6         1.0     0.937010     0.914407     0.152280    Uiso  ? O
   O7         1.0     0.948320     0.107499     0.991560    Uiso  ? O
   O8         1.0     0.052705     0.894621     0.491408    Uiso  ? O
   O9         1.0     0.028214     0.412192     0.736907    Uiso  ? O
   O10        1.0     0.972270     0.589946     0.236677    Uiso  ? O
   O11        1.0     0.499279     0.164192     0.253071    Uiso  ? O
   O12        1.0     0.501401     0.837450     0.753344    Uiso  ? O
   O13        1.0     0.466504     0.230968     0.991780    Uiso  ? O
   O14        1.0     0.534053     0.770717     0.491893    Uiso  ? O
   O15        1.0     0.576873     0.578500     0.918996    Uiso  ? O
   O16        1.0     0.423813     0.423161     0.419066    Uiso  ? O
   O17        1.0     0.484363     0.613343     0.261125    Uiso  ? O
   O18        1.0     0.516433     0.388300     0.761012    Uiso  ? O
   O19        1.0     0.557328     0.911082     0.003072    Uiso  ? O
   O20        1.0     0.443580     0.090600     0.502841    Uiso  ? O
