#======================================================================
# CRYSTAL DATA
#----------------------------------------------------------------------
data_VESTA_phase_1

_chemical_name_common                  'H20 C12 O10                           '
_cell_length_a                         6.591583
_cell_length_b                         5.810101
_cell_length_c                         10.396854
_cell_angle_alpha                      118.110558
_cell_angle_beta                       114.536667
_cell_angle_gamma                      81.824730
_cell_volume                           318.781815
_space_group_name_H-M_alt              'P 1'
_space_group_IT_number                 1

loop_
_space_group_symop_operation_xyz
   'x, y, z'

loop_
   _atom_site_label
   _atom_site_occupancy
   _atom_site_fract_x
   _atom_site_fract_y
   _atom_site_fract_z
   _atom_site_adp_type
   _atom_site_U_iso_or_equiv
   _atom_site_type_symbol
   H1         1.0     0.745349     0.235818     0.858491    Uiso  ? H
   H2         1.0     0.338041     0.671368     0.812049    Uiso  ? H
   H3         1.0     0.495636     0.589928     0.495840    Uiso  ? H
   H4         1.0     0.497427     0.460955     0.963589    Uiso  ? H
   H5         1.0     0.638970     0.374629     0.312868    Uiso  ? H
   H6         1.0     0.239622     0.817894     0.379788    Uiso  ? H
   H7         1.0     0.810881     0.870637     0.196257    Uiso  ? H
   H8         1.0     0.961384     0.411328     0.266610    Uiso  ? H
   H9         1.0     0.679976     0.954539     0.946782    Uiso  ? H
   H10        1.0     0.160354     0.176682     0.073596    Uiso  ? H
   H11        1.0     0.001473     0.647124     0.014052    Uiso  ? H
   H12        1.0     0.459437     0.922774     0.144516    Uiso  ? H
   H13        1.0     0.422628     0.658189     0.179285    Uiso  ? H
   H14        1.0     0.165773     0.171954     0.870335    Uiso  ? H
   H15        1.0     0.025381     0.632979     0.575442    Uiso  ? H
   H16        1.0     0.297845     0.104938     0.654679    Uiso  ? H
   H17        1.0     0.826906     0.860346     0.403813    Uiso  ? H
   H18        1.0     0.971428     0.395622     0.703659    Uiso  ? H
   H19        1.0     0.514356     0.117471     0.446031    Uiso  ? H
   H20        1.0     0.551311     0.385687     0.636359    Uiso  ? H
   O1         1.0     0.139250     0.955809     0.245486    Uiso  ? O
   O2         1.0     0.974401     0.175723     0.421125    Uiso  ? O
   O3         1.0     0.625362     0.314072     0.201234    Uiso  ? O
   O4         1.0     0.744223     0.313530     0.966728    Uiso  ? O
   O5         1.0     0.356254     0.554302     0.944694    Uiso  ? O
   O6         1.0     0.836114     0.084863     0.700096    Uiso  ? O
   O7         1.0     0.003780     0.865050     0.847515    Uiso  ? O
   O8         1.0     0.356374     0.737706     0.744277    Uiso  ? O
   O9         1.0     0.250354     0.746124     0.452204    Uiso  ? O
   O10        1.0     0.624824     0.478861     0.490288    Uiso  ? O
   C1         1.0     0.929780     0.044180     0.259552    Uiso  ? C
   C2         1.0     0.837226     0.240887     0.193648    Uiso  ? C
   C3         1.0     0.811163     0.117306     0.021999    Uiso  ? C
   C4         1.0     0.032567     0.012222     0.010799    Uiso  ? C
   C5         1.0     0.119472     0.822489     0.082826    Uiso  ? C
   C6         1.0     0.355586     0.744027     0.096091    Uiso  ? C
   C7         1.0     0.047317     0.998766     0.779089    Uiso  ? C
   C8         1.0     0.144556     0.806534     0.660501    Uiso  ? C
   C9         1.0     0.173511     0.934881     0.570859    Uiso  ? C
   C10        1.0     0.948963     0.030728     0.494421    Uiso  ? C
   C11        1.0     0.856697     0.218443     0.618118    Uiso  ? C
   C12        1.0     0.621249     0.295035     0.544910    Uiso  ? C
